distribution/case56_sce.m
function mpc = case56_sce
%CASE56_SCE   Power Flow Data for 56-bus, 55-branch, 2-generator, 4-capacitor case
%  the buses with capacitors are considered as PV buses
%  South California Edison (SCE) 56-node Distribution Network
%  From the Paper:
%  [1] L. Gan, N. Li, U. Topcu, and S. H. Low, “Exact convex relaxation of optimal power flow in radial networks,” IEEE Transactions on Automatic Control, vol. 60, no. 1, pp. 72–87, 2015.
%  @article{gan2015exact,
%  title={Exact convex relaxation of optimal power flow in radial networks},
%  author={Gan, Lingwen and Li, Na and Topcu, Ufuk and Low, Steven H},
%  journal={IEEE Transactions on Automatic Control},
%  volume={60},
%  number={1},
%  pages={72--87},
%  year={2015},
%  publisher={IEEE}
%  }
%  original case by L. Gan, N. Li, U. Topcu, and S. H. Low
%  this matpower case is created by X. Geng
%Matpower

%% MATPOWER Case Format : Version 2
mpc.version = '2';

%%-----  Power Flow Data  -----%%
%% system MVA base
mpc.baseMVA = 1;

%% bus data
%	bus_i	type	Pd	Qd	Gs	Bs	area	Vm	Va	baseKV	zone	Vmax	Vmin
mpc.bus = [
	1	3	0	0	0	0	1	1	0	12	1	1.1	0.9;
	2	1	0	0	0	0	1	1	0	12	1	1.1	0.9;
	3	1	0.0513	0.024845724	0	0	1	1	0	12	1	1.1	0.9;
	4	1	0	0	0	0	1	1	0	12	1	1.1	0.9;
	5	1	0.1089	0.0527426772	0	0	1	1	0	12	1	1.1	0.9;
	6	1	0.0441	0.0213586048	0	0	1	1	0	12	1	1.1	0.9;
	7	1	0.0477	0.0231021644	0	0	1	1	0	12	1	1.1	0.9;
	8	1	0.0423	0.020486825	0	0	1	1	0	12	1	1.1	0.9;
	9	1	0.0612	0.0296405128	0	0	1	1	0	12	1	1.1	0.9;
	10	1	0.0432	0.0209227149	0	0	1	1	0	12	1	1.1	0.9;
	11	1	0.0603	0.0292046229	0	0	1	1	0	12	1	1.1	0.9;
	12	1	0.0846	0.0409736501	0	0	1	1	0	12	1	1.1	0.9;
	13	1	0	0	0	0	1	1	0	12	1	1.1	0.9;
	14	1	0.0513	0.024845724	0	0	1	1	0	12	1	1.1	0.9;
	15	1	0	0	0	0	1	1	0	12	1	1.1	0.9;
	16	1	0.0477	0.0231021644	0	0	1	1	0	12	1	1.1	0.9;
	17	1	0.0513	0.024845724	0	0	1	1	0	12	1	1.1	0.9;
	18	1	0.1008	0.0488196682	0	0	1	1	0	12	1	1.1	0.9;
	19	2	0.0783	0.0379224208	0	0	1	1	0	12	1	1.1	0.9;
	20	1	0	0	0	0	1	1	0	12	1	1.1	0.9;
	21	2	0	0	0	0	1	1	0	12	1	1.1	0.9;
	22	1	0.0567	0.0274610633	0	0	1	1	0	12	1	1.1	0.9;
	23	1	0	0	0	0	1	1	0	12	1	1.1	0.9;
	24	1	0.1215	0.0588451357	0	0	1	1	0	12	1	1.1	0.9;
	25	1	0.09	0.0435889894	0	0	1	1	0	12	1	1.1	0.9;
	26	1	0	0	0	0	1	1	0	12	1	1.1	0.9;
	27	1	0.0432	0.0209227149	0	0	1	1	0	12	1	1.1	0.9;
	28	1	0.0342	0.016563816	0	0	1	1	0	12	1	1.1	0.9;
	29	1	0.0396	0.0191791554	0	0	1	1	0	12	1	1.1	0.9;
	30	2	0	0	0	0	1	1	0	12	1	1.1	0.9;
	31	1	0.0477	0.0231021644	0	0	1	1	0	12	1	1.1	0.9;
	32	1	0.2007	0.0972034464	0	0	1	1	0	12	1	1.1	0.9;
	33	1	0.1107	0.053614457	0	0	1	1	0	12	1	1.1	0.9;
	34	1	0.0603	0.0292046229	0	0	1	1	0	12	1	1.1	0.9;
	35	1	0.0846	0.0409736501	0	0	1	1	0	12	1	1.1	0.9;
	36	1	0.0873	0.0422813198	0	0	1	1	0	12	1	1.1	0.9;
	37	1	0.2529	0.12248506	0	0	1	1	0	12	1	1.1	0.9;
	38	1	0.1053	0.0509991176	0	0	1	1	0	12	1	1.1	0.9;
	39	1	0.1179	0.0571015762	0	0	1	1	0	12	1	1.1	0.9;
	40	1	0.027	0.0130766968	0	0	1	1	0	12	1	1.1	0.9;
	41	1	0.0414	0.0200509351	0	0	1	1	0	12	1	1.1	0.9;
	42	1	0.0486	0.0235380543	0	0	1	1	0	12	1	1.1	0.9;
	43	1	0.0747	0.0361788612	0	0	1	1	0	12	1	1.1	0.9;
	44	1	0.0513	0.024845724	0	0	1	1	0	12	1	1.1	0.9;
	45	2	0	0	0	0	1	1	0	12	1	1.1	0.9;
	46	1	0.1206	0.0584092458	0	0	1	1	0	12	1	1.1	0.9;
	47	1	0.0405	0.0196150452	0	0	1	1	0	12	1	1.1	0.9;
	48	1	0.1764	0.0854344193	0	0	1	1	0	12	1	1.1	0.9;
	49	1	0	0	0	0	1	1	0	12	1	1.1	0.9;
	50	1	0.0405	0.0196150452	0	0	1	1	0	12	1	1.1	0.9;
	51	1	0	0	0	0	1	1	0	12	1	1.1	0.9;
	52	1	0.2835	0.137305317	0	0	1	1	0	12	1	1.1	0.9;
	53	2	0	0	0	0	1	1	0	12	1	1.1	0.9;
	54	1	0.0549	0.0265892836	0	0	1	1	0	12	1	1.1	0.9;
	55	1	0.0495	0.0239739442	0	0	1	1	0	12	1	1.1	0.9;
	56	1	0.117	0.0566656863	0	0	1	1	0	12	1	1.1	0.9;
];

%% generator data
%	bus	Pg	Qg	Qmax	Qmin	Vg	mBase	status	Pmax	Pmin	Pc1	Pc2	Qc1min	Qc1max	Qc2min	Qc2max	ramp_agc	ramp_10	ramp_30	ramp_q	apf
mpc.gen = [
	1	1.31327311	0.261937809	38.35	-38.35	1	1	1	38.35	-38.35	0	0	0	0	0	0	0	0	0	0	0;
	45	2.15886782	0	0	0	1	1	1	5	0	0	0	0	0	0	0	0	0	0	0	0;
	19	0	0.156076218	0.6	-0.6	1	1	1	0	0	0	0	0	0	0	0	0	0	0	0	0;
	21	0	0.389295839	0.6	-0.6	1	1	1	0	0	0	0	0	0	0	0	0	0	0	0	0;
	30	0	0.297963975	0.6	-0.6	1	1	1	0	0	0	0	0	0	0	0	0	0	0	0	0;
	53	0	0.599998679	0.6	-0.6	1	1	1	0	0	0	0	0	0	0	0	0	0	0	0	0;
];

%% branch data
%	fbus	tbus	r	x	b	rateA	rateB	rateC	ratio	angle	status	angmin	angmax
mpc.branch = [
	1	2	0.00111111111	0.00269444444	0	0	0	0	0	0	1	-360	360;
	2	3	0.00572222222	0.0021875	0	0	0	0	0	0	1	-360	360;
	2	4	0.001	0.00242361111	0	0	0	0	0	0	1	-360	360;
	4	5	0.007125	0.00292361111	0	0	0	0	0	0	1	-360	360;
	4	6	0.00514583333	0.00323611111	0	0	0	0	0	0	1	-360	360;
	4	7	0.00366666667	0.00325	0	0	0	0	0	0	1	-360	360;
	7	8	0.00248611111	0.00218055556	0	0	0	0	0	0	1	-360	360;
	8	9	0.0141111111	0.00554166667	0	0	0	0	0	0	1	-360	360;
	8	10	0.00348611111	0.0030625	0	0	0	0	0	0	1	-360	360;
	10	11	0.00258333333	0.00227083333	0	0	0	0	0	0	1	-360	360;
	11	12	0.0099375	0.0069375	0	0	0	0	0	0	1	-360	360;
	11	13	0.00297916667	0.00261805556	0	0	0	0	0	0	1	-360	360;
	13	14	0.00465972222	0.00178472222	0	0	0	0	0	0	1	-360	360;
	13	15	0.00317361111	0.00278472222	0	0	0	0	0	0	1	-360	360;
	15	16	0.007	0.00267361111	0	0	0	0	0	0	1	-360	360;
	15	17	0.0010625	0.000930555556	0	0	0	0	0	0	1	-360	360;
	17	18	0.00674305556	0.00501388889	0	0	0	0	0	0	1	-360	360;
	18	19	0.0130902778	0.00500694444	0	0	0	0	0	0	1	-360	360;
	4	20	0.000958333333	0.00231944444	0	0	0	0	0	0	1	-360	360;
	20	21	0.00174305556	0.000666666667	0	0	0	0	0	0	1	-360	360;
	21	22	0.012625	0.00482638889	0	0	0	0	0	0	1	-360	360;
	20	23	0.0015625	0.00376388889	0	0	0	0	0	0	1	-360	360;
	23	24	0.000881944444	0.000194444444	0	0	0	0	0	0	1	-360	360;
	23	25	0.00197222222	0.00477083333	0	0	0	0	0	0	1	-360	360;
	25	26	0.0011875	0.002875	0	0	0	0	0	0	1	-360	360;
	26	27	0.002875	0.00268055556	0	0	0	0	0	0	1	-360	360;
	27	28	0.00145833333	0.00136111111	0	0	0	0	0	0	1	-360	360;
	28	29	0.00274305556	0.0025625	0	0	0	0	0	0	1	-360	360;
	29	30	0.00172222222	0.00161111111	0	0	0	0	0	0	1	-360	360;
	30	31	0.0019375	0.00180555556	0	0	0	0	0	0	1	-360	360;
	26	32	0.00142361111	0.0034375	0	0	0	0	0	0	1	-360	360;
	32	33	0.00182638889	0.000506944444	0	0	0	0	0	0	1	-360	360;
	32	34	0.000493055556	0.0011875	0	0	0	0	0	0	1	-360	360;
	34	35	0.00434027778	0.00189583333	0	0	0	0	0	0	1	-360	360;
	34	36	0.00354166667	0.00145138889	0	0	0	0	0	0	1	-360	360;
	36	37	0.0140138889	0.00575694444	0	0	0	0	0	0	1	-360	360;
	34	38	0.007375	0.00281944444	0	0	0	0	0	0	1	-360	360;
	38	39	0.00423611111	0.00165277778	0	0	0	0	0	0	1	-360	360;
	39	40	0.0163125	0.00669444444	0	0	0	0	0	0	1	-360	360;
	34	41	0.000798611111	0.00193055556	0	0	0	0	0	0	1	-360	360;
	41	42	0.00110416667	0.00266666667	0	0	0	0	0	0	1	-360	360;
	42	43	0.00648611111	0.00265972222	0	0	0	0	0	0	1	-360	360;
	42	44	0.00351388889	0.00113194444	0	0	0	0	0	0	1	-360	360;
	42	45	0.000659722222	0.00135416667	0	0	0	0	0	0	1	-360	360;
	42	46	0.0132986111	0.00534027778	0	0	0	0	0	0	1	-360	360;
	41	47	0.00109027778	0.00263194444	0	0	0	0	0	0	1	-360	360;
	47	48	0.0113958333	0.00465277778	0	0	0	0	0	0	1	-360	360;
	47	49	0.0005625	0.00136111111	0	0	0	0	0	0	1	-360	360;
	49	50	0.0119930556	0.00492361111	0	0	0	0	0	0	1	-360	360;
	49	51	0.000777777778	0.001875	0	0	0	0	0	0	1	-360	360;
	51	52	0.00468055556	0.00190972222	0	0	0	0	0	0	1	-360	360;
	51	53	0.000486111111	0.00118055556	0	0	0	0	0	0	1	-360	360;
	53	54	0.0141736111	0.00541666667	0	0	0	0	0	0	1	-360	360;
	53	55	0.00564583333	0.00231944444	0	0	0	0	0	0	1	-360	360;
	53	56	0.000979166667	0.00236111111	0	0	0	0	0	0	1	-360	360;
];

%%-----  OPF Data  -----%%
%% generator cost data
%	1	startup	shutdown	n	x1	y1	...	xn	yn
%	2	startup	shutdown	n	c(n-1)	...	c0
mpc.gencost = [
	2	0	0	2	30	0;
	2	0	0	2	30	0;
	2	0	0	2	30	0;
	2	0	0	2	30	0;
	2	0	0	2	30	0;
	2	0	0	2	30	0;
];
